C30H35N5O6S
  MOLSOFT 01221814353D

 76 79  0  0  1  0  0  0  0  0999 V2000
   11.6926   25.1016   24.7869 H   0  0  0
   12.2178   24.5928   24.0721 N   0  0  0
   11.7590   23.3925   24.0110 C   0  0  0
   10.7345   23.0102   24.8299 N   0  0  0
   10.3613   22.0669   24.8655 H   0  0  0
   10.2845   23.6808   25.4419 H   0  0  0
   12.3629   22.4310   23.0436 C   0  0  0
   11.7755   21.1966   22.7840 C   0  0  0
   10.8399   20.8981   23.2440 H   0  0  0
   12.3757   20.3148   21.9050 C   0  0  0
   11.8749   19.3731   21.7090 H   0  0  0
   13.5812   20.6244   21.2825 C   0  0  0
   14.1419   21.8761   21.5218 C   0  0  0
   15.0636   22.1711   21.0281 H   0  0  0
   13.5375   22.7755   22.3832 C   0  0  0
   14.0008   23.7449   22.5434 H   0  0  0
   14.2422   19.6667   20.3165 C   0  0  0
   13.5365   19.5067   19.4970 H   0  0  0
   15.0974   20.1767   19.8592 H   0  0  0
   14.7442   18.3192   20.8824 C   0  0  2
   15.3134   17.8334   20.0862 H   0  0  0
   13.5903   17.3721   21.2609 C   0  0  0
   13.2863   17.1821   22.4320 O   0  0  0
   12.8566   16.8207   20.2050 N   0  0  0
   13.3413   16.7036   18.8282 C   0  0  0
   13.2397   17.6758   18.3426 H   0  0  0
   14.4059   16.4543   18.8400 H   0  0  0
   12.5850   15.6443   18.0414 C   0  0  0
   12.9637   15.5822   17.0171 H   0  0  0
   12.7821   14.6717   18.4986 H   0  0  0
   11.0797   15.8875   18.0323 C   0  0  0
   10.7937   16.5191   17.1861 H   0  0  0
   10.5669   14.9323   17.8808 H   0  0  0
   10.5941   16.5405   19.3166 C   0  0  0
   10.5301   17.6225   19.1590 H   0  0  0
    9.5825   16.1988   19.5436 H   0  0  0
   11.5375   16.2636   20.4763 C   0  0  0
   11.6468   15.1882   20.6556 H   0  0  0
   11.1372   16.7080   21.3904 H   0  0  0
   15.6942   18.4911   21.9867 N   0  0  0
   15.4681   19.1482   22.7258 H   0  0  0
   16.7428   17.6049   22.1773 C   0  0  0
   16.8545   16.5710   21.5317 O   0  0  0
   17.7782   18.0572   23.2188 C   0  0  2
   17.3042   18.8103   23.8568 H   0  0  0
   18.9919   18.7069   22.5156 C   0  0  0
   18.6534   19.6719   22.1224 H   0  0  0
   19.7640   18.9524   23.2437 H   0  0  0
   19.6541   17.9662   21.3394 C   0  0  0
   18.9109   17.7284   20.5751 H   0  0  0
   20.3340   18.6792   20.8602 H   0  0  0
   20.4781   16.6905   21.5886 C   0  0  0
   21.5009   16.5712   20.8593 O   0  0  0
   20.0449   15.8983   22.4674 O   0  5  0
   18.1611   16.8992   24.0933 N   0  0  0
   18.5990   16.0982   23.6160 H   0  0  0
   18.5862   17.1105   25.7394 S   0  0  0
   18.8625   15.8090   26.3136 O   0  0  0
   17.6209   18.0021   26.3475 O   0  0  0
   20.1577   17.9952   25.6721 C   0  0  0
   20.2237   19.3201   26.0849 C   0  0  0
   19.3537   19.8423   26.4673 H   0  0  0
   21.4223   19.9985   25.9805 C   0  0  0
   21.4609   21.0367   26.2963 H   0  0  0
   22.5501   19.3581   25.4720 C   0  0  0
   23.7442   20.0473   25.3092 C   0  0  0
   23.8063   21.1017   25.5359 H   0  0  0
   24.8727   19.4064   24.8404 C   0  0  0
   25.7987   19.9584   24.7345 H   0  0  0
   24.8204   18.0691   24.5025 C   0  0  0
   25.7076   17.5706   24.1248 H   0  0  0
   23.6306   17.3739   24.6290 C   0  0  0
   23.5985   16.3286   24.3357 H   0  0  0
   22.4904   18.0102   25.1117 C   0  0  0
   21.2876   17.3232   25.2222 C   0  0  0
   21.2237   16.2794   24.9244 H   0  0  0
  2  1  1
  2  3  2
  3  4  1
  3  7  1
  4  5  1
  4  6  1
  7  8  1
  7 15  2
  8  9  1
  8 10  2
 10 11  1
 10 12  1
 12 13  2
 12 17  1
 13 14  1
 13 15  1
 15 16  1
 17 18  1
 17 19  1
 20 17  1
 20 21  1
 20 22  1
 20 40  1
 22 23  2
 22 24  1
 24 25  1
 24 37  1
 25 26  1
 25 27  1
 25 28  1
 28 29  1
 28 30  1
 28 31  1
 31 32  1
 31 33  1
 31 34  1
 34 35  1
 34 36  1
 34 37  1
 37 38  1
 37 39  1
 40 41  1
 40 42  1
 42 43  2
 44 42  1
 44 45  1
 44 46  1
 44 55  1
 46 47  1
 46 48  1
 46 49  1
 49 50  1
 49 51  1
 49 52  1
 52 53  2
 52 54  1
 55 56  1
 55 57  1
 57 58  2
 57 59  2
 57 60  1
 60 61  1
 60 75  2
 61 62  1
 61 63  2
 63 64  1
 63 65  1
 65 66  2
 65 74  1
 66 67  1
 66 68  1
 68 69  1
 68 70  2
 70 71  1
 70 72  1
 72 73  1
 72 74  2
 74 75  1
 75 76  1
M  ZZC   1 h1
M  ZZC   2 n1
M  ZZC   3 c1
M  ZZC   4 n5
M  ZZC   5 h51
M  ZZC   6 h52
M  ZZC   7 c2
M  ZZC   8 c3
M  ZZC   9 h31
M  ZZC  10 c4
M  ZZC  11 h41
M  ZZC  12 c5
M  ZZC  13 c6
M  ZZC  14 h61
M  ZZC  15 c7
M  ZZC  16 h71
M  ZZC  17 c8
M  ZZC  18 h81
M  ZZC  19 h82
M  ZZC  20 c9
M  ZZC  21 h91
M  ZZC  22 c10
M  ZZC  23 o1
M  ZZC  24 n2
M  ZZC  25 c11
M  ZZC  26 h111
M  ZZC  27 h112
M  ZZC  28 c12
M  ZZC  29 h121
M  ZZC  30 h122
M  ZZC  31 c13
M  ZZC  32 h131
M  ZZC  33 h132
M  ZZC  34 c14
M  ZZC  35 h141
M  ZZC  36 h142
M  ZZC  37 c15
M  ZZC  38 h151
M  ZZC  39 h152
M  ZZC  40 n3
M  ZZC  41 h01
M  ZZC  42 c16
M  ZZC  43 o2
M  ZZC  44 c17
M  ZZC  45 h171
M  ZZC  46 c18
M  ZZC  47 h181
M  ZZC  48 h182
M  ZZC  49 c19
M  ZZC  50 h191
M  ZZC  51 h192
M  ZZC  52 c20
M  ZZC  53 o3
M  ZZC  54 o4
M  ZZC  55 n4
M  ZZC  56 h02
M  ZZC  57 s1
M  ZZC  58 o5
M  ZZC  59 o6
M  ZZC  60 c21
M  ZZC  61 c22
M  ZZC  62 h221
M  ZZC  63 c23
M  ZZC  64 h231
M  ZZC  65 c24
M  ZZC  66 c25
M  ZZC  67 h251
M  ZZC  68 c26
M  ZZC  69 h261
M  ZZC  70 c27
M  ZZC  71 h271
M  ZZC  72 c28
M  ZZC  73 h281
M  ZZC  74 c29
M  ZZC  75 c30
M  ZZC  76 h301
M  ZZM   1 27
M  ZZI   1 16
M  ZZM   2 9
M  ZZI   2 220
M  ZZM   3 3
M  ZZI   3 121
M  ZZM   4 40
M  ZZI   4 224
M  ZZM   5 28
M  ZZI   5 11
M  ZZM   6 28
M  ZZI   6 11
M  ZZM   7 37
M  ZZI   7 124
M  ZZM   8 37
M  ZZI   8 125
M  ZZM   9 5
M  ZZI   9 1
M  ZZM  10 37
M  ZZI  10 125
M  ZZM  11 5
M  ZZI  11 1
M  ZZM  12 37
M  ZZI  12 124
M  ZZM  13 37
M  ZZI  13 125
M  ZZM  14 5
M  ZZI  14 1
M  ZZM  15 37
M  ZZI  15 125
M  ZZM  16 5
M  ZZI  16 1
M  ZZM  17 1
M  ZZI  17 112
M  ZZM  18 5
M  ZZI  18 1
M  ZZM  19 5
M  ZZI  19 1
M  ZZM  20 1
M  ZZI  20 113
M  ZZM  21 5
M  ZZI  21 1
M  ZZM  22 3
M  ZZI  22 121
M  ZZM  23 7
M  ZZI  23 81
M  ZZM  24 10
M  ZZI  24 192
M  ZZM  25 1
M  ZZI  25 112
M  ZZM  26 5
M  ZZI  26 1
M  ZZM  27 5
M  ZZI  27 1
M  ZZM  28 1
M  ZZI  28 112
M  ZZM  29 5
M  ZZI  29 1
M  ZZM  30 5
M  ZZI  30 1
M  ZZM  31 1
M  ZZI  31 112
M  ZZM  32 5
M  ZZI  32 1
M  ZZM  33 5
M  ZZI  33 1
M  ZZM  34 1
M  ZZI  34 112
M  ZZM  35 5
M  ZZI  35 1
M  ZZM  36 5
M  ZZI  36 1
M  ZZM  37 1
M  ZZI  37 112
M  ZZM  38 5
M  ZZI  38 1
M  ZZM  39 5
M  ZZI  39 1
M  ZZM  40 10
M  ZZI  40 211
M  ZZM  41 28
M  ZZI  41 11
M  ZZM  42 3
M  ZZI  42 121
M  ZZM  43 7
M  ZZI  43 81
M  ZZM  44 1
M  ZZI  44 113
M  ZZM  45 5
M  ZZI  45 1
M  ZZM  46 1
M  ZZI  46 112
M  ZZM  47 5
M  ZZI  47 1
M  ZZM  48 5
M  ZZI  48 1
M  ZZM  49 1
M  ZZI  49 112
M  ZZM  50 5
M  ZZI  50 1
M  ZZM  51 5
M  ZZI  51 1
M  ZZM  52 41
M  ZZI  52 127
M  ZZM  53 32
M  ZZI  53 71
M  ZZM  54 32
M  ZZI  54 71
M  ZZM  55 43
M  ZZI  55 196
M  ZZM  56 28
M  ZZI  56 11
M  ZZM  57 18
M  ZZI  57 250
M  ZZM  58 32
M  ZZI  58 73
M  ZZM  59 32
M  ZZI  59 73
M  ZZM  60 37
M  ZZI  60 124
M  ZZM  61 37
M  ZZI  61 125
M  ZZM  62 5
M  ZZI  62 1
M  ZZM  63 37
M  ZZI  63 125
M  ZZM  64 5
M  ZZI  64 1
M  ZZM  65 37
M  ZZI  65 124
M  ZZM  66 37
M  ZZI  66 125
M  ZZM  67 5
M  ZZI  67 1
M  ZZM  68 37
M  ZZI  68 125
M  ZZM  69 5
M  ZZI  69 1
M  ZZM  70 37
M  ZZI  70 125
M  ZZM  71 5
M  ZZI  71 1
M  ZZM  72 37
M  ZZI  72 125
M  ZZM  73 5
M  ZZI  73 1
M  ZZM  74 37
M  ZZI  74 124
M  ZZM  75 37
M  ZZI  75 125
M  ZZM  76 5
M  ZZI  76 1
M  ZZE   1 10,10,0,0,0,0,0,0;1,1,1,1,1,1,1,1,1,1,1
M  ZZE   2 10,10,0,0,0,0,0,0;0,3,0,3,0,0,0,0,0,0,0
M  ZZE   3 10,10,0,0,0,0,0,0;0,17,0,17,0,0,0,0,0,0,0
M  ZZE   4 10,10,0,0,0,0,0,0;0,3,0,3,0,0,0,0,0,0,0
M  ZZE   5 10,10,0,0,0,0,0,0;1,1,1,1,1,1,1,1,1,1,1
M  ZZE   6 10,10,0,0,0,0,0,0;1,1,1,1,1,1,1,1,1,1,1
M  ZZE   7 10,10,0,0,0,0,0,0;0,17,0,17,0,0,0,0,0,0,0
M  ZZE   8 10,10,0,0,0,0,0,0;0,17,0,17,0,0,0,0,0,0,0
M  ZZE   9 0,0,0,0,0,0,0,0;0,0,0,0,0,0,0,0,0,0,0
M  ZZE  10 10,10,0,0,0,0,0,0;0,17,0,17,0,0,0,0,0,0,0
M  ZZE  11 0,0,0,0,0,0,0,0;0,0,0,0,0,0,0,0,0,0,0
M  ZZE  12 10,10,0,0,0,0,0,0;0,17,0,17,0,0,0,0,0,0,0
M  ZZE  13 10,10,0,0,0,0,0,0;0,17,0,17,0,0,0,0,0,0,0
M  ZZE  14 0,0,0,0,0,0,0,0;0,0,0,0,0,0,0,0,0,0,0
M  ZZE  15 10,10,0,0,0,0,0,0;0,17,0,17,0,0,0,0,0,0,0
M  ZZE  16 0,0,0,0,0,0,0,0;0,0,0,0,0,0,0,0,0,0,0
M  ZZE  17 10,10,0,0,0,0,0,0;0,17,0,17,0,0,0,0,0,0,0
M  ZZE  18 0,0,0,0,0,0,0,0;0,0,0,0,0,0,0,0,0,0,0
M  ZZE  19 0,0,0,0,0,0,0,0;0,0,0,0,0,0,0,0,0,0,0
M  ZZE  20 10,10,0,0,0,0,0,0;0,17,0,17,0,0,0,0,0,0,0
M  ZZE  21 0,0,0,0,0,0,0,0;0,0,0,0,0,0,0,0,0,0,0
M  ZZE  22 10,10,0,0,0,0,0,0;0,17,0,17,0,0,0,0,0,0,0
M  ZZE  23 10,10,0,0,0,0,0,0;0,4,0,4,0,0,0,0,0,0,0
M  ZZE  24 10,10,0,0,0,0,0,0;0,3,0,3,0,0,0,0,0,0,0
M  ZZE  25 10,10,0,0,0,0,0,0;0,17,0,17,0,0,0,0,0,0,0
M  ZZE  26 0,0,0,0,0,0,0,0;0,0,0,0,0,0,0,0,0,0,0
M  ZZE  27 0,0,0,0,0,0,0,0;0,0,0,0,0,0,0,0,0,0,0
M  ZZE  28 10,10,0,0,0,0,0,0;0,17,0,17,0,0,0,0,0,0,0
M  ZZE  29 0,0,0,0,0,0,0,0;0,0,0,0,0,0,0,0,0,0,0
M  ZZE  30 0,0,0,0,0,0,0,0;0,0,0,0,0,0,0,0,0,0,0
M  ZZE  31 10,10,0,0,0,0,0,0;0,17,0,17,0,0,0,0,0,0,0
M  ZZE  32 0,0,0,0,0,0,0,0;0,0,0,0,0,0,0,0,0,0,0
M  ZZE  33 0,0,0,0,0,0,0,0;0,0,0,0,0,0,0,0,0,0,0
M  ZZE  34 10,10,0,0,0,0,0,0;0,17,0,17,0,0,0,0,0,0,0
M  ZZE  35 0,0,0,0,0,0,0,0;0,0,0,0,0,0,0,0,0,0,0
M  ZZE  36 0,0,0,0,0,0,0,0;0,0,0,0,0,0,0,0,0,0,0
M  ZZE  37 10,10,0,0,0,0,0,0;0,17,0,17,0,0,0,0,0,0,0
M  ZZE  38 0,0,0,0,0,0,0,0;0,0,0,0,0,0,0,0,0,0,0
M  ZZE  39 0,0,0,0,0,0,0,0;0,0,0,0,0,0,0,0,0,0,0
M  ZZE  40 10,10,0,0,0,0,0,0;0,3,0,3,0,0,0,0,0,0,0
M  ZZE  41 10,10,0,0,0,0,0,0;1,1,1,1,1,1,1,1,1,1,1
M  ZZE  42 10,10,0,0,0,0,0,0;0,17,0,17,0,0,0,0,0,0,0
M  ZZE  43 10,10,0,0,0,0,0,0;0,4,0,4,0,0,0,0,0,0,0
M  ZZE  44 10,10,0,0,0,0,0,0;0,17,0,17,0,0,0,0,0,0,0
M  ZZE  45 0,0,0,0,0,0,0,0;0,0,0,0,0,0,0,0,0,0,0
M  ZZE  46 10,10,0,0,0,0,0,0;0,17,0,17,0,0,0,0,0,0,0
M  ZZE  47 0,0,0,0,0,0,0,0;0,0,0,0,0,0,0,0,0,0,0
M  ZZE  48 0,0,0,0,0,0,0,0;0,0,0,0,0,0,0,0,0,0,0
M  ZZE  49 10,10,0,0,0,0,0,0;0,17,0,17,0,0,0,0,0,0,0
M  ZZE  50 0,0,0,0,0,0,0,0;0,0,0,0,0,0,0,0,0,0,0
M  ZZE  51 0,0,0,0,0,0,0,0;0,0,0,0,0,0,0,0,0,0,0
M  ZZE  52 10,10,0,0,0,0,0,0;0,17,0,17,0,0,0,0,0,0,0
M  ZZE  53 10,10,0,0,0,0,0,0;0,4,0,4,0,0,0,0,0,0,0
M  ZZE  54 10,10,0,0,0,0,0,0;0,4,0,4,0,0,0,0,0,0,0
M  ZZE  55 10,10,0,0,0,0,0,0;0,3,0,3,0,0,0,0,0,0,0
M  ZZE  56 10,10,0,0,0,0,0,0;1,1,1,1,1,1,1,1,1,1,1
M  ZZE  57 10,10,0,0,0,0,0,0;0,5,0,5,0,0,0,0,0,0,0
M  ZZE  58 10,10,0,0,0,0,0,0;0,4,0,4,0,0,0,0,0,0,0
M  ZZE  59 10,10,0,0,0,0,0,0;0,4,0,4,0,0,0,0,0,0,0
M  ZZE  60 10,10,0,0,0,0,0,0;0,17,0,17,0,0,0,0,0,0,0
M  ZZE  61 10,10,0,0,0,0,0,0;0,17,0,17,0,0,0,0,0,0,0
M  ZZE  62 0,0,0,0,0,0,0,0;0,0,0,0,0,0,0,0,0,0,0
M  ZZE  63 10,10,0,0,0,0,0,0;0,17,0,17,0,0,0,0,0,0,0
M  ZZE  64 0,0,0,0,0,0,0,0;0,0,0,0,0,0,0,0,0,0,0
M  ZZE  65 10,10,0,0,0,0,0,0;0,17,0,17,0,0,0,0,0,0,0
M  ZZE  66 10,10,0,0,0,0,0,0;0,17,0,17,0,0,0,0,0,0,0
M  ZZE  67 0,0,0,0,0,0,0,0;0,0,0,0,0,0,0,0,0,0,0
M  ZZE  68 10,10,0,0,0,0,0,0;0,17,0,17,0,0,0,0,0,0,0
M  ZZE  69 0,0,0,0,0,0,0,0;0,0,0,0,0,0,0,0,0,0,0
M  ZZE  70 10,10,0,0,0,0,0,0;0,17,0,17,0,0,0,0,0,0,0
M  ZZE  71 0,0,0,0,0,0,0,0;0,0,0,0,0,0,0,0,0,0,0
M  ZZE  72 10,10,0,0,0,0,0,0;0,17,0,17,0,0,0,0,0,0,0
M  ZZE  73 0,0,0,0,0,0,0,0;0,0,0,0,0,0,0,0,0,0,0
M  ZZE  74 10,10,0,0,0,0,0,0;0,17,0,17,0,0,0,0,0,0,0
M  ZZE  75 10,10,0,0,0,0,0,0;0,17,0,17,0,0,0,0,0,0,0
M  ZZE  76 0,0,0,0,0,0,0,0;0,0,0,0,0,0,0,0,0,0,0
M  CHG  2  53   0  54  -1
M  END
> <L>
0

> <IX>
1

> <NAME>
C30H35N5O6S



> <Score>
-30.185257

> <Natom>
76

> <Nflex>
12

> <Hbond>
-6.090647

> <Hphob>
-6.803299

> <VwInt>
-47.652644

> <Eintl>
15.783239

> <Dsolv>
20.377694

> <SolEl>
8.305636

> <mfScore>
-105.122284

> <dTSsc>
1.952135

> <CONF>
1

> <RecConf>
1

> <O>
1

> <docked>
0

> <cmpds_IX>
0

$$$$
C30H35N5O6S
  MOLSOFT 01221814353D

 76 79  0  0  1  0  0  0  0  0999 V2000
    9.9558   21.8863   25.3431 H   0  0  0
   10.4503   21.6843   24.4724 N   0  0  0
   11.1507   22.7141   24.1535 C   0  0  0
   11.1134   23.8399   24.9239 N   0  0  0
   11.6189   24.6897   24.6970 H   0  0  0
   10.4134   23.9109   25.6539 H   0  0  0
   11.9860   22.6521   22.9252 C   0  0  0
   12.9229   23.6354   22.6195 C   0  0  0
   13.1006   24.4824   23.2717 H   0  0  0
   13.6996   23.5094   21.4834 C   0  0  0
   14.4638   24.2543   21.2801 H   0  0  0
   13.5507   22.4142   20.6397 C   0  0  0
   12.5722   21.4738   20.9203 C   0  0  0
   12.4277   20.6225   20.2638 H   0  0  0
   11.8165   21.5711   22.0699 C   0  0  0
   11.1034   20.7848   22.3000 H   0  0  0
   14.5228   22.1853   19.5142 C   0  0  0
   14.0897   21.5208   18.7604 H   0  0  0
   14.6993   23.1321   19.0087 H   0  0  0
   15.8240   21.5971   20.0700 C   0  0  2
   16.0619   22.1160   20.9968 H   0  0  0
   16.9726   21.7173   19.0650 C   0  0  0
   16.7540   21.6715   17.8608 O   0  0  0
   18.2641   21.7520   19.5961 N   0  0  0
   18.5888   21.9463   21.0013 C   0  0  0
   19.1687   22.8685   21.0576 H   0  0  0
   17.7184   22.0981   21.6313 H   0  0  0
   19.3810   20.7624   21.5119 C   0  0  0
   19.6132   20.8984   22.5686 H   0  0  0
   18.7696   19.8589   21.4341 H   0  0  0
   20.6475   20.5845   20.6887 C   0  0  0
   21.3082   21.4472   20.8222 H   0  0  0
   21.1959   19.7033   21.0296 H   0  0  0
   20.2956   20.4366   19.2177 C   0  0  0
   21.2006   20.4051   18.6141 H   0  0  0
   19.7747   19.4873   19.0819 H   0  0  0
   19.4263   21.5823   18.7357 C   0  0  0
   19.1286   21.4244   17.6970 H   0  0  0
   20.0130   22.5004   18.7777 H   0  0  0
   15.6581   20.1654   20.3273 N   0  0  0
   15.4656   19.5709   19.5261 H   0  0  0
   15.7575   19.5842   21.5832 C   0  0  0
   16.0564   20.1949   22.6018 O   0  0  0
   15.3699   18.1041   21.5618 C   0  0  2
   15.6888   17.6711   20.6070 H   0  0  0
   13.8362   18.0346   21.6653 C   0  0  0
   13.5168   18.0977   22.7108 H   0  0  0
   13.3942   18.9018   21.1795 H   0  0  0
   13.2289   16.8111   20.9857 C   0  0  0
   12.1364   16.8616   21.0455 H   0  0  0
   13.4895   16.8022   19.9215 H   0  0  0
   13.6718   15.5097   21.6457 C   0  0  0
   14.1218   14.6482   20.8444 O   0  0  0
   13.5239   15.4575   22.8986 O   0  5  0
   15.9728   17.3116   22.6797 N   0  0  0
   15.6600   17.5881   23.6150 H   0  0  0
   17.5545   16.6679   22.5252 S   0  0  0
   18.1066   17.0860   21.2502 O   0  0  0
   17.5384   15.2775   22.9303 O   0  0  0
   18.4739   17.5315   23.8199 C   0  0  0
   17.9220   17.6607   25.0880 C   0  0  0
   16.9631   17.2199   25.3393 H   0  0  0
   18.6132   18.3633   26.0551 C   0  0  0
   18.1778   18.4610   27.0445 H   0  0  0
   19.8445   18.9399   25.7620 C   0  0  0
   20.5036   19.7099   26.7097 C   0  0  0
   20.0580   19.8989   27.6796 H   0  0  0
   21.7310   20.2697   26.4225 C   0  0  0
   22.2150   20.8843   27.1676 H   0  0  0
   22.3347   20.0480   25.2002 C   0  0  0
   23.3092   20.4771   24.9874 H   0  0  0
   21.6838   19.2920   24.2424 C   0  0  0
   22.1645   19.1404   23.2801 H   0  0  0
   20.4272   18.7518   24.5072 C   0  0  0
   19.7367   18.0384   23.5335 C   0  0  0
   20.1773   17.8949   22.5506 H   0  0  0
  2  1  1
  2  3  2
  3  4  1
  3  7  1
  4  5  1
  4  6  1
  7  8  1
  7 15  2
  8  9  1
  8 10  2
 10 11  1
 10 12  1
 12 13  2
 12 17  1
 13 14  1
 13 15  1
 15 16  1
 17 18  1
 17 19  1
 20 17  1
 20 21  1
 20 22  1
 20 40  1
 22 23  2
 22 24  1
 24 25  1
 24 37  1
 25 26  1
 25 27  1
 25 28  1
 28 29  1
 28 30  1
 28 31  1
 31 32  1
 31 33  1
 31 34  1
 34 35  1
 34 36  1
 34 37  1
 37 38  1
 37 39  1
 40 41  1
 40 42  1
 42 43  2
 44 42  1
 44 45  1
 44 46  1
 44 55  1
 46 47  1
 46 48  1
 46 49  1
 49 50  1
 49 51  1
 49 52  1
 52 53  2
 52 54  1
 55 56  1
 55 57  1
 57 58  2
 57 59  2
 57 60  1
 60 61  1
 60 75  2
 61 62  1
 61 63  2
 63 64  1
 63 65  1
 65 66  2
 65 74  1
 66 67  1
 66 68  1
 68 69  1
 68 70  2
 70 71  1
 70 72  1
 72 73  1
 72 74  2
 74 75  1
 75 76  1
M  ZZC   1 h1
M  ZZC   2 n1
M  ZZC   3 c1
M  ZZC   4 n5
M  ZZC   5 h51
M  ZZC   6 h52
M  ZZC   7 c2
M  ZZC   8 c3
M  ZZC   9 h31
M  ZZC  10 c4
M  ZZC  11 h41
M  ZZC  12 c5
M  ZZC  13 c6
M  ZZC  14 h61
M  ZZC  15 c7
M  ZZC  16 h71
M  ZZC  17 c8
M  ZZC  18 h81
M  ZZC  19 h82
M  ZZC  20 c9
M  ZZC  21 h91
M  ZZC  22 c10
M  ZZC  23 o1
M  ZZC  24 n2
M  ZZC  25 c11
M  ZZC  26 h111
M  ZZC  27 h112
M  ZZC  28 c12
M  ZZC  29 h121
M  ZZC  30 h122
M  ZZC  31 c13
M  ZZC  32 h131
M  ZZC  33 h132
M  ZZC  34 c14
M  ZZC  35 h141
M  ZZC  36 h142
M  ZZC  37 c15
M  ZZC  38 h151
M  ZZC  39 h152
M  ZZC  40 n3
M  ZZC  41 h01
M  ZZC  42 c16
M  ZZC  43 o2
M  ZZC  44 c17
M  ZZC  45 h171
M  ZZC  46 c18
M  ZZC  47 h181
M  ZZC  48 h182
M  ZZC  49 c19
M  ZZC  50 h191
M  ZZC  51 h192
M  ZZC  52 c20
M  ZZC  53 o3
M  ZZC  54 o4
M  ZZC  55 n4
M  ZZC  56 h02
M  ZZC  57 s1
M  ZZC  58 o5
M  ZZC  59 o6
M  ZZC  60 c21
M  ZZC  61 c22
M  ZZC  62 h221
M  ZZC  63 c23
M  ZZC  64 h231
M  ZZC  65 c24
M  ZZC  66 c25
M  ZZC  67 h251
M  ZZC  68 c26
M  ZZC  69 h261
M  ZZC  70 c27
M  ZZC  71 h271
M  ZZC  72 c28
M  ZZC  73 h281
M  ZZC  74 c29
M  ZZC  75 c30
M  ZZC  76 h301
M  ZZM   1 27
M  ZZI   1 16
M  ZZM   2 9
M  ZZI   2 220
M  ZZM   3 3
M  ZZI   3 121
M  ZZM   4 40
M  ZZI   4 224
M  ZZM   5 28
M  ZZI   5 11
M  ZZM   6 28
M  ZZI   6 11
M  ZZM   7 37
M  ZZI   7 124
M  ZZM   8 37
M  ZZI   8 125
M  ZZM   9 5
M  ZZI   9 1
M  ZZM  10 37
M  ZZI  10 125
M  ZZM  11 5
M  ZZI  11 1
M  ZZM  12 37
M  ZZI  12 124
M  ZZM  13 37
M  ZZI  13 125
M  ZZM  14 5
M  ZZI  14 1
M  ZZM  15 37
M  ZZI  15 125
M  ZZM  16 5
M  ZZI  16 1
M  ZZM  17 1
M  ZZI  17 112
M  ZZM  18 5
M  ZZI  18 1
M  ZZM  19 5
M  ZZI  19 1
M  ZZM  20 1
M  ZZI  20 113
M  ZZM  21 5
M  ZZI  21 1
M  ZZM  22 3
M  ZZI  22 121
M  ZZM  23 7
M  ZZI  23 81
M  ZZM  24 10
M  ZZI  24 192
M  ZZM  25 1
M  ZZI  25 112
M  ZZM  26 5
M  ZZI  26 1
M  ZZM  27 5
M  ZZI  27 1
M  ZZM  28 1
M  ZZI  28 112
M  ZZM  29 5
M  ZZI  29 1
M  ZZM  30 5
M  ZZI  30 1
M  ZZM  31 1
M  ZZI  31 112
M  ZZM  32 5
M  ZZI  32 1
M  ZZM  33 5
M  ZZI  33 1
M  ZZM  34 1
M  ZZI  34 112
M  ZZM  35 5
M  ZZI  35 1
M  ZZM  36 5
M  ZZI  36 1
M  ZZM  37 1
M  ZZI  37 112
M  ZZM  38 5
M  ZZI  38 1
M  ZZM  39 5
M  ZZI  39 1
M  ZZM  40 10
M  ZZI  40 211
M  ZZM  41 28
M  ZZI  41 11
M  ZZM  42 3
M  ZZI  42 121
M  ZZM  43 7
M  ZZI  43 81
M  ZZM  44 1
M  ZZI  44 113
M  ZZM  45 5
M  ZZI  45 1
M  ZZM  46 1
M  ZZI  46 112
M  ZZM  47 5
M  ZZI  47 1
M  ZZM  48 5
M  ZZI  48 1
M  ZZM  49 1
M  ZZI  49 112
M  ZZM  50 5
M  ZZI  50 1
M  ZZM  51 5
M  ZZI  51 1
M  ZZM  52 41
M  ZZI  52 127
M  ZZM  53 32
M  ZZI  53 71
M  ZZM  54 32
M  ZZI  54 71
M  ZZM  55 43
M  ZZI  55 196
M  ZZM  56 28
M  ZZI  56 11
M  ZZM  57 18
M  ZZI  57 250
M  ZZM  58 32
M  ZZI  58 73
M  ZZM  59 32
M  ZZI  59 73
M  ZZM  60 37
M  ZZI  60 124
M  ZZM  61 37
M  ZZI  61 125
M  ZZM  62 5
M  ZZI  62 1
M  ZZM  63 37
M  ZZI  63 125
M  ZZM  64 5
M  ZZI  64 1
M  ZZM  65 37
M  ZZI  65 124
M  ZZM  66 37
M  ZZI  66 125
M  ZZM  67 5
M  ZZI  67 1
M  ZZM  68 37
M  ZZI  68 125
M  ZZM  69 5
M  ZZI  69 1
M  ZZM  70 37
M  ZZI  70 125
M  ZZM  71 5
M  ZZI  71 1
M  ZZM  72 37
M  ZZI  72 125
M  ZZM  73 5
M  ZZI  73 1
M  ZZM  74 37
M  ZZI  74 124
M  ZZM  75 37
M  ZZI  75 125
M  ZZM  76 5
M  ZZI  76 1
M  CHG  2  53   0  54  -1
M  END
> <L>
0

> <IX>
1

> <NAME>
C30H35N5O6S


> <Score>
-20.692713

> <Natom>
76

> <Nflex>
12

> <Hbond>
-6.323705

> <Hphob>
-7.677454

> <VwInt>
-41.920909

> <Eintl>
23.012899

> <Dsolv>
16.931231

> <SolEl>
13.128638

> <mfScore>
-117.622588

> <dTSsc>
1.728977

> <CONF>
2

> <RecConf>
1

> <O>
2

> <docked>
0

> <cmpds_IX>
0

$$$$
C30H35N5O6S
  MOLSOFT 01221814353D

 76 79  0  0  1  0  0  0  0  0999 V2000
   25.2712   20.3508   25.1699 H   0  0  0
   24.2721   20.2403   25.3579 N   0  0  0
   23.8185   19.3874   24.5111 C   0  0  0
   24.6602   18.8374   23.5836 N   0  0  0
   24.3064   18.3440   22.7689 H   0  0  0
   25.6390   19.1076   23.5411 H   0  0  0
   22.3709   19.0174   24.5312 C   0  0  0
   21.9348   17.8554   23.9017 C   0  0  0
   22.6325   17.1716   23.4310 H   0  0  0
   20.5879   17.5470   23.8638 C   0  0  0
   20.2735   16.6428   23.3506 H   0  0  0
   19.6418   18.3895   24.4372 C   0  0  0
   20.0886   19.5238   25.1128 C   0  0  0
   19.3801   20.1950   25.5879 H   0  0  0
   21.4398   19.8342   25.1686 C   0  0  0
   21.7538   20.7337   25.6894 H   0  0  0
   18.1675   18.0881   24.2801 C   0  0  0
   17.9775   17.0588   24.6042 H   0  0  0
   17.5844   18.7187   24.9607 H   0  0  0
   17.7060   18.2783   22.8243 C   0  0  2
   18.3307   17.6925   22.1507 H   0  0  0
   17.7092   19.7754   22.4834 C   0  0  0
   16.9156   20.5133   23.0548 O   0  0  0
   18.5946   20.2435   21.5050 N   0  0  0
   19.3142   19.3395   20.6057 C   0  0  0
   19.7774   18.5348   21.1786 H   0  0  0
   18.5629   18.8790   19.9617 H   0  0  0
   20.3975   19.9865   19.7629 C   0  0  0
   21.2719   20.1801   20.3932 H   0  0  0
   20.7088   19.2951   18.9816 H   0  0  0
   19.9409   21.2843   19.1419 C   0  0  0
   20.7515   21.7270   18.5545 H   0  0  0
   19.0941   21.1209   18.4675 H   0  0  0
   19.5560   22.2006   20.2752 C   0  0  0
   20.4330   22.3426   20.9090 H   0  0  0
   19.2651   23.1761   19.9006 H   0  0  0
   18.4085   21.6308   21.0809 C   0  0  0
   17.4948   21.6800   20.4832 H   0  0  0
   18.2287   22.2574   21.9575 H   0  0  0
   16.3194   17.8677   22.5969 N   0  0  0
   15.6209   18.2098   23.2494 H   0  0  0
   15.9226   17.3233   21.3835 C   0  0  0
   16.7096   16.8682   20.5636 O   0  0  0
   14.4071   17.3620   21.1413 C   0  0  2
   13.9142   17.8587   21.9826 H   0  0  0
   13.8876   15.9196   21.0340 C   0  0  0
   14.2453   15.4536   20.1087 H   0  0  0
   14.3185   15.3375   21.8559 H   0  0  0
   12.3620   15.8016   21.1266 C   0  0  0
   12.1118   14.8361   21.5783 H   0  0  0
   11.9476   16.5789   21.7760 H   0  0  0
   11.6577   15.8621   19.7705 C   0  0  0
   11.2804   14.7494   19.3135 O   0  0  0
   11.5301   17.0218   19.2872 O   0  5  0
   14.0826   18.1013   19.8707 N   0  0  0
   13.2564   17.7873   19.3413 H   0  0  0
   14.4739   19.7497   19.6488 S   0  0  0
   13.9967   20.1461   18.3421 O   0  0  0
   15.8614   19.9292   20.0100 O   0  0  0
   13.4759   20.6385   20.8747 C   0  0  0
   12.3008   20.0835   21.3661 C   0  0  0
   11.9203   19.1333   21.0054 H   0  0  0
   11.6001   20.7534   22.3519 C   0  0  0
   10.6981   20.3132   22.7593 H   0  0  0
   12.0294   21.9828   22.8259 C   0  0  0
   11.3069   22.6410   23.8162 C   0  0  0
   10.4024   22.2042   24.2302 H   0  0  0
   11.7386   23.8625   24.2951 C   0  0  0
   11.1803   24.3695   25.0753 H   0  0  0
   12.8822   24.4363   23.7768 C   0  0  0
   13.2274   25.3895   24.1646 H   0  0  0
   13.5961   23.7959   22.7778 C   0  0  0
   14.4861   24.2705   22.3795 H   0  0  0
   13.1890   22.5550   22.3044 C   0  0  0
   13.9226   21.8748   21.3342 C   0  0  0
   14.8386   22.3087   20.9403 H   0  0  0
  2  1  1
  2  3  2
  3  4  1
  3  7  1
  4  5  1
  4  6  1
  7  8  1
  7 15  2
  8  9  1
  8 10  2
 10 11  1
 10 12  1
 12 13  2
 12 17  1
 13 14  1
 13 15  1
 15 16  1
 17 18  1
 17 19  1
 20 17  1
 20 21  1
 20 22  1
 20 40  1
 22 23  2
 22 24  1
 24 25  1
 24 37  1
 25 26  1
 25 27  1
 25 28  1
 28 29  1
 28 30  1
 28 31  1
 31 32  1
 31 33  1
 31 34  1
 34 35  1
 34 36  1
 34 37  1
 37 38  1
 37 39  1
 40 41  1
 40 42  1
 42 43  2
 44 42  1
 44 45  1
 44 46  1
 44 55  1
 46 47  1
 46 48  1
 46 49  1
 49 50  1
 49 51  1
 49 52  1
 52 53  2
 52 54  1
 55 56  1
 55 57  1
 57 58  2
 57 59  2
 57 60  1
 60 61  1
 60 75  2
 61 62  1
 61 63  2
 63 64  1
 63 65  1
 65 66  2
 65 74  1
 66 67  1
 66 68  1
 68 69  1
 68 70  2
 70 71  1
 70 72  1
 72 73  1
 72 74  2
 74 75  1
 75 76  1
M  ZZC   1 h1
M  ZZC   2 n1
M  ZZC   3 c1
M  ZZC   4 n5
M  ZZC   5 h51
M  ZZC   6 h52
M  ZZC   7 c2
M  ZZC   8 c3
M  ZZC   9 h31
M  ZZC  10 c4
M  ZZC  11 h41
M  ZZC  12 c5
M  ZZC  13 c6
M  ZZC  14 h61
M  ZZC  15 c7
M  ZZC  16 h71
M  ZZC  17 c8
M  ZZC  18 h81
M  ZZC  19 h82
M  ZZC  20 c9
M  ZZC  21 h91
M  ZZC  22 c10
M  ZZC  23 o1
M  ZZC  24 n2
M  ZZC  25 c11
M  ZZC  26 h111
M  ZZC  27 h112
M  ZZC  28 c12
M  ZZC  29 h121
M  ZZC  30 h122
M  ZZC  31 c13
M  ZZC  32 h131
M  ZZC  33 h132
M  ZZC  34 c14
M  ZZC  35 h141
M  ZZC  36 h142
M  ZZC  37 c15
M  ZZC  38 h151
M  ZZC  39 h152
M  ZZC  40 n3
M  ZZC  41 h01
M  ZZC  42 c16
M  ZZC  43 o2
M  ZZC  44 c17
M  ZZC  45 h171
M  ZZC  46 c18
M  ZZC  47 h181
M  ZZC  48 h182
M  ZZC  49 c19
M  ZZC  50 h191
M  ZZC  51 h192
M  ZZC  52 c20
M  ZZC  53 o3
M  ZZC  54 o4
M  ZZC  55 n4
M  ZZC  56 h02
M  ZZC  57 s1
M  ZZC  58 o5
M  ZZC  59 o6
M  ZZC  60 c21
M  ZZC  61 c22
M  ZZC  62 h221
M  ZZC  63 c23
M  ZZC  64 h231
M  ZZC  65 c24
M  ZZC  66 c25
M  ZZC  67 h251
M  ZZC  68 c26
M  ZZC  69 h261
M  ZZC  70 c27
M  ZZC  71 h271
M  ZZC  72 c28
M  ZZC  73 h281
M  ZZC  74 c29
M  ZZC  75 c30
M  ZZC  76 h301
M  ZZM   1 27
M  ZZI   1 16
M  ZZM   2 9
M  ZZI   2 220
M  ZZM   3 3
M  ZZI   3 121
M  ZZM   4 40
M  ZZI   4 224
M  ZZM   5 28
M  ZZI   5 11
M  ZZM   6 28
M  ZZI   6 11
M  ZZM   7 37
M  ZZI   7 124
M  ZZM   8 37
M  ZZI   8 125
M  ZZM   9 5
M  ZZI   9 1
M  ZZM  10 37
M  ZZI  10 125
M  ZZM  11 5
M  ZZI  11 1
M  ZZM  12 37
M  ZZI  12 124
M  ZZM  13 37
M  ZZI  13 125
M  ZZM  14 5
M  ZZI  14 1
M  ZZM  15 37
M  ZZI  15 125
M  ZZM  16 5
M  ZZI  16 1
M  ZZM  17 1
M  ZZI  17 112
M  ZZM  18 5
M  ZZI  18 1
M  ZZM  19 5
M  ZZI  19 1
M  ZZM  20 1
M  ZZI  20 113
M  ZZM  21 5
M  ZZI  21 1
M  ZZM  22 3
M  ZZI  22 121
M  ZZM  23 7
M  ZZI  23 81
M  ZZM  24 10
M  ZZI  24 192
M  ZZM  25 1
M  ZZI  25 112
M  ZZM  26 5
M  ZZI  26 1
M  ZZM  27 5
M  ZZI  27 1
M  ZZM  28 1
M  ZZI  28 112
M  ZZM  29 5
M  ZZI  29 1
M  ZZM  30 5
M  ZZI  30 1
M  ZZM  31 1
M  ZZI  31 112
M  ZZM  32 5
M  ZZI  32 1
M  ZZM  33 5
M  ZZI  33 1
M  ZZM  34 1
M  ZZI  34 112
M  ZZM  35 5
M  ZZI  35 1
M  ZZM  36 5
M  ZZI  36 1
M  ZZM  37 1
M  ZZI  37 112
M  ZZM  38 5
M  ZZI  38 1
M  ZZM  39 5
M  ZZI  39 1
M  ZZM  40 10
M  ZZI  40 211
M  ZZM  41 28
M  ZZI  41 11
M  ZZM  42 3
M  ZZI  42 121
M  ZZM  43 7
M  ZZI  43 81
M  ZZM  44 1
M  ZZI  44 113
M  ZZM  45 5
M  ZZI  45 1
M  ZZM  46 1
M  ZZI  46 112
M  ZZM  47 5
M  ZZI  47 1
M  ZZM  48 5
M  ZZI  48 1
M  ZZM  49 1
M  ZZI  49 112
M  ZZM  50 5
M  ZZI  50 1
M  ZZM  51 5
M  ZZI  51 1
M  ZZM  52 41
M  ZZI  52 127
M  ZZM  53 32
M  ZZI  53 71
M  ZZM  54 32
M  ZZI  54 71
M  ZZM  55 43
M  ZZI  55 196
M  ZZM  56 28
M  ZZI  56 11
M  ZZM  57 18
M  ZZI  57 250
M  ZZM  58 32
M  ZZI  58 73
M  ZZM  59 32
M  ZZI  59 73
M  ZZM  60 37
M  ZZI  60 124
M  ZZM  61 37
M  ZZI  61 125
M  ZZM  62 5
M  ZZI  62 1
M  ZZM  63 37
M  ZZI  63 125
M  ZZM  64 5
M  ZZI  64 1
M  ZZM  65 37
M  ZZI  65 124
M  ZZM  66 37
M  ZZI  66 125
M  ZZM  67 5
M  ZZI  67 1
M  ZZM  68 37
M  ZZI  68 125
M  ZZM  69 5
M  ZZI  69 1
M  ZZM  70 37
M  ZZI  70 125
M  ZZM  71 5
M  ZZI  71 1
M  ZZM  72 37
M  ZZI  72 125
M  ZZM  73 5
M  ZZI  73 1
M  ZZM  74 37
M  ZZI  74 124
M  ZZM  75 37
M  ZZI  75 125
M  ZZM  76 5
M  ZZI  76 1
M  CHG  2  53   0  54  -1
M  END
> <L>
0

> <IX>
1

> <NAME>
C30H35N5O6S



> <Score>
-18.625211

> <Natom>
76

> <Nflex>
12

> <Hbond>
-3.986429

> <Hphob>
-7.34914

> <VwInt>
-41.030306

> <Eintl>
13.143573

> <Dsolv>
17.920775

> <SolEl>
13.466606

> <mfScore>
-93.250277

> <dTSsc>
1.817656

> <CONF>
3

> <RecConf>
1

> <O>
3

> <docked>
0

> <cmpds_IX>
0

$$$$