70799
  -OEChem-10231818503D

 21 22  0     0  0  0  0  0  0999 V2000
    1.0515    2.4197    0.2136 S   0  0  0  0  0  0  0  0  0  0  0  0
   -3.9588   -0.9329   -0.0961 O   0  0  0  0  0  0  0  0  0  0  0  0
   -2.3791   -0.3305    1.4213 O   0  0  0  0  0  0  0  0  0  0  0  0
    0.5620   -0.0696   -0.2852 C   0  0  0  0  0  0  0  0  0  0  0  0
   -0.6590    0.6538   -0.4995 C   0  0  0  0  0  0  0  0  0  0  0  0
    1.5937    0.7860    0.1134 C   0  0  0  0  0  0  0  0  0  0  0  0
   -1.9337    0.0247   -0.9282 C   0  0  0  0  0  0  0  0  0  0  0  0
   -0.5302    2.0023   -0.2650 C   0  0  0  0  0  0  0  0  0  0  0  0
    0.8494   -1.4500   -0.4143 C   0  0  0  0  0  0  0  0  0  0  0  0
    2.8892    0.3023    0.3823 C   0  0  0  0  0  0  0  0  0  0  0  0
    2.1333   -1.9330   -0.1478 C   0  0  0  0  0  0  0  0  0  0  0  0
    3.1410   -1.0642    0.2457 C   0  0  0  0  0  0  0  0  0  0  0  0
   -2.7594   -0.4086    0.2599 C   0  0  0  0  0  0  0  0  0  0  0  0
   -1.7493   -0.8489   -1.5619 H   0  0  0  0  0  0  0  0  0  0  0  0
   -2.5274    0.7404   -1.5094 H   0  0  0  0  0  0  0  0  0  0  0  0
   -1.2907    2.7661   -0.3507 H   0  0  0  0  0  0  0  0  0  0  0  0
    0.0761   -2.1508   -0.7186 H   0  0  0  0  0  0  0  0  0  0  0  0
    3.6842    0.9750    0.6913 H   0  0  0  0  0  0  0  0  0  0  0  0
    2.3412   -2.9945   -0.2496 H   0  0  0  0  0  0  0  0  0  0  0  0
    4.1363   -1.4490    0.4506 H   0  0  0  0  0  0  0  0  0  0  0  0
   -4.4763   -1.2258    0.6841 H   0  0  0  0  0  0  0  0  0  0  0  0
  1  6  1  0  0  0  0
  1  8  1  0  0  0  0
  2 13  1  0  0  0  0
  2 21  1  0  0  0  0
  3 13  2  0  0  0  0
  4  5  1  0  0  0  0
  4  6  1  0  0  0  0
  4  9  2  0  0  0  0
  5  7  1  0  0  0  0
  5  8  2  0  0  0  0
  6 10  2  0  0  0  0
  7 13  1  0  0  0  0
  7 14  1  0  0  0  0
  7 15  1  0  0  0  0
  8 16  1  0  0  0  0
  9 11  1  0  0  0  0
  9 17  1  0  0  0  0
 10 12  1  0  0  0  0
 10 18  1  0  0  0  0
 11 12  2  0  0  0  0
 11 19  1  0  0  0  0
 12 20  1  0  0  0  0
M  END
> <PUBCHEM_COMPOUND_CID>
70799

> <PUBCHEM_CONFORMER_RMSD>
0.6

> <PUBCHEM_CONFORMER_DIVERSEORDER>
1
4
6
7
5
2
3

> <PUBCHEM_MMFF94_PARTIAL_CHARGES>
18
1 -0.08
10 -0.15
11 -0.15
12 -0.15
13 0.66
16 0.15
17 0.15
18 0.15
19 0.15
2 -0.65
20 0.15
21 0.5
3 -0.57
5 -0.18
6 0.04
7 0.24
8 -0.11
9 -0.15

> <PUBCHEM_EFFECTIVE_ROTOR_COUNT>
2

> <PUBCHEM_PHARMACOPHORE_FEATURES>
5
1 2 acceptor
1 3 acceptor
3 2 3 13 anion
5 1 4 5 6 8 rings
6 4 6 9 10 11 12 rings

> <PUBCHEM_HEAVY_ATOM_COUNT>
13

> <PUBCHEM_ATOM_DEF_STEREO_COUNT>
0

> <PUBCHEM_ATOM_UDEF_STEREO_COUNT>
0

> <PUBCHEM_BOND_DEF_STEREO_COUNT>
0

> <PUBCHEM_BOND_UDEF_STEREO_COUNT>
0

> <PUBCHEM_ISOTOPIC_ATOM_COUNT>
0

> <PUBCHEM_COMPONENT_COUNT>
1

> <PUBCHEM_CACTVS_TAUTO_COUNT>
1

> <PUBCHEM_CONFORMER_ID>
0001148F00000001

> <PUBCHEM_MMFF94_ENERGY>
22.9842

> <PUBCHEM_FEATURE_SELFOVERLAP>
25.489

> <PUBCHEM_SHAPE_FINGERPRINT>
10219947 1 18412544344385100374
108231 29 18409165498240815482
11471102 22 18410295838806056632
12032990 46 18340486660691228374
12251169 10 18273496801338980783
12696612 119 18343025479830579772
14251717 144 18339636849671653663
15501101 241 18335421304678730821
16945 1 18340477950307485596
17844478 74 18337392647528196084
17990270 104 18335417963067489304
20201158 50 18259984872796159027
20645477 70 18263353854244804959
20711985 344 17532362072316344125
20871998 22 18270970028970900198
21061003 4 18411982442451340960
21501502 16 18336552594817099884
22721475 48 18261398823089844099
2334 1 17690834983954219060
2748010 2 18197483035868484292
528862 383 18264765648153872396
77492 1 17560799991512489941
81228 2 18048314440384935884
8809292 202 17975696087011121166

> <PUBCHEM_SHAPE_MULTIPOLES>
259.64
4.94
2.18
0.86
2.6
0.92
-0.11
-2.45
-0.78
-0.96
0.05
0.38
-0.03
0.26

> <PUBCHEM_SHAPE_SELFOVERLAP>
549.807

> <PUBCHEM_SHAPE_VOLUME>
146.5

> <PUBCHEM_COORDINATE_TYPE>
2
5
10

$$$$
